578
 i =      157, E =     -5897.8263931705
  S         8.9924600000        3.8180300000       23.7335990561
  S         4.1611800000       12.2496300000       23.7335990561
  S         1.5450100000        7.0345300000       29.8550990561
  S         6.3763200000        2.6001300000       29.8550990561
  S         1.5450100000        2.6001300000       21.3564990561
  S         6.3763200000        7.0345300000       21.3564990561
  S         6.7773200000        0.6015300000       29.8550990561
  S         1.1440100000        9.0331300000       29.8550990561
  S         6.7773200000        9.0331300000       21.3564990561
  S         1.1440100000        0.6015300000       21.3564990561
  S         3.7601500000       10.2510300000       23.7335990561
  S         9.3934600000        5.8166300000       23.7335990561
  S         7.4383800000        3.4693600000       22.4448990561
  S         5.7152600000       12.5983000000       22.4448990561
  S         3.0991200000        6.6858600000       28.5663990561
  S         4.8222100000        2.9488000000       28.5663990561
  S         3.0991200000        2.9488000000       22.6451990561
  S         4.8222100000        6.6858600000       22.6451990561
  S         8.3314000000        0.2528600000       28.5663990561
  S        10.0545200000        9.3818000000       28.5663990561
  S         8.3314000000        9.3818000000       22.6451990561
  S        10.0545200000        0.2528600000       22.6451990561
  S         2.2060700000        9.9023600000       22.4448990561
  S         0.4829500000        6.1653000000       22.4448990561
  S         8.2422500000        2.8202700000       20.6784790561
  S         4.9113600000        0.3813900000       20.6784790561
  S         2.2952200000        6.0367700000       26.7999790561
  S         5.6261100000        3.5978900000       26.7999790561
  S         2.2952200000        3.5978900000       24.4116190561
  S         5.6261100000        6.0367700000       24.4116190561
  S         7.5275300000       12.4697700000       26.7999790561
  S         0.3938000000       10.0308900000       26.7999790561
  S         7.5275300000       10.0308900000       24.4116190561
  S         0.3938000000       12.4697700000       24.4116190561
  S         3.0099700000        9.2532700000       20.6784790561
  S        10.1436700000        6.8143900000       20.6784790561
  S         8.2612100000        4.3968700000       19.3748490561
  S         4.8924300000       11.6707900000       19.3748490561
  S         2.2762900000        7.6133700000       25.4963490561
  S         5.6450400000        2.0212900000       25.4963490561
  S         2.2762900000        2.0212900000       25.7152490561
  S         5.6450400000        7.6133700000       25.7152490561
  S         7.5085700000        1.1803700000       25.4963490561
  S         0.4127600000        8.4542900000       25.4963490561
  S         7.5085700000        8.4542900000       25.7152490561
  S         0.4127600000        1.1803700000       25.7152490561
  S         3.0289000000       10.8298700000       19.3748490561
  S        10.1247400000        5.2377900000       19.3748490561
  S         8.9924600000       16.6840300000       23.7335990561
  S         4.1611800000       25.1156300000       23.7335990561
  S         1.5450100000       19.9005300000       29.8550990561
  S         6.3763200000       15.4661300000       29.8550990561
  S         1.5450100000       15.4661300000       21.3564990561
  S         6.3763200000       19.9005300000       21.3564990561
  S         6.7773200000       13.4675300000       29.8550990561
  S         1.1440100000       21.8991300000       29.8550990561
  S         6.7773200000       21.8991300000       21.3564990561
  S         1.1440100000       13.4675300000       21.3564990561
  S         3.7601500000       23.1170300000       23.7335990561
  S         9.3934600000       18.6826300000       23.7335990561
  S         7.4383800000       16.3353600000       22.4448990561
  S         5.7152600000       25.4643000000       22.4448990561
  S         3.0991200000       19.5518600000       28.5663990561
  S         4.8222100000       15.8148000000       28.5663990561
  S         3.0991200000       15.8148000000       22.6451990561
  S         4.8222100000       19.5518600000       22.6451990561
  S         8.3314000000       13.1188600000       28.5663990561
  S        10.0545200000       22.2478000000       28.5663990561
  S         8.3314000000       22.2478000000       22.6451990561
  S        10.0545200000       13.1188600000       22.6451990561
  S         2.2060700000       22.7683600000       22.4448990561
  S         0.4829500000       19.0313000000       22.4448990561
  S         8.2422500000       15.6862700000       20.6784790561
  S         4.9113600000       13.2473900000       20.6784790561
  S         2.2952200000       18.9027700000       26.7999790561
  S         5.6261100000       16.4638900000       26.7999790561
  S         2.2952200000       16.4638900000       24.4116190561
  S         5.6261100000       18.9027700000       24.4116190561
  S         7.5275300000       25.3357700000       26.7999790561
  S         0.3938000000       22.8968900000       26.7999790561
  S         7.5275300000       22.8968900000       24.4116190561
  S         0.3938000000       25.3357700000       24.4116190561
  S         3.0099700000       22.1192700000       20.6784790561
  S        10.1436700000       19.6803900000       20.6784790561
  S         8.2612100000       17.2628700000       19.3748490561
  S         4.8924300000       24.5367900000       19.3748490561
  S         2.2762900000       20.4793700000       25.4963490561
  S         5.6450400000       14.8872900000       25.4963490561
  S         2.2762900000       14.8872900000       25.7152490561
  S         5.6450400000       20.4793700000       25.7152490561
  S         7.5085700000       14.0463700000       25.4963490561
  S         0.4127600000       21.3202900000       25.4963490561
  S         7.5085700000       21.3202900000       25.7152490561
  S         0.4127600000       14.0463700000       25.7152490561
  S         3.0289000000       23.6958700000       19.3748490561
  S        10.1247400000       18.1037900000       19.3748490561
  S        19.4570500000        3.8180300000       23.7335990561
  S        14.6257700000       12.2496300000       23.7335990561
  S        12.0096300000        7.0345300000       29.8550990561
  S        16.8409100000        2.6001300000       29.8550990561
  S        12.0096300000        2.6001300000       21.3564990561
  S        16.8409100000        7.0345300000       21.3564990561
  S        17.2419100000        0.6015300000       29.8550990561
  S        11.6086000000        9.0331300000       29.8550990561
  S        17.2419100000        9.0331300000       21.3564990561
  S        11.6086000000        0.6015300000       21.3564990561
  S        14.2247700000       10.2510300000       23.7335990561
  S        19.8580800000        5.8166300000       23.7335990561
  S        17.9029700000        3.4693600000       22.4448990561
  S        16.1798500000       12.5983000000       22.4448990561
  S        13.5637100000        6.6858600000       28.5663990561
  S        15.2868300000        2.9488000000       28.5663990561
  S        13.5637100000        2.9488000000       22.6451990561
  S        15.2868300000        6.6858600000       22.6451990561
  S        18.7960200000        0.2528600000       28.5663990561
  S        20.5191100000        9.3818000000       28.5663990561
  S        18.7960200000        9.3818000000       22.6451990561
  S        20.5191100000        0.2528600000       22.6451990561
  S        12.6706600000        9.9023600000       22.4448990561
  S        10.9475700000        6.1653000000       22.4448990561
  S        18.7068700000        2.8202700000       20.6784790561
  S        15.3759800000        0.3813900000       20.6784790561
  S        12.7598100000        6.0367700000       26.7999790561
  S        16.0907000000        3.5978900000       26.7999790561
  S        12.7598100000        3.5978900000       24.4116190561
  S        16.0907000000        6.0367700000       24.4116190561
  S        17.9921200000       12.4697700000       26.7999790561
  S        10.8584200000       10.0308900000       26.7999790561
  S        17.9921200000       10.0308900000       24.4116190561
  S        10.8584200000       12.4697700000       24.4116190561
  S        13.4745600000        9.2532700000       20.6784790561
  S        20.6082600000        6.8143900000       20.6784790561
  S        18.7258000000        4.3968700000       19.3748490561
  S        15.3570200000       11.6707900000       19.3748490561
  S        12.7408800000        7.6133700000       25.4963490561
  S        16.1096600000        2.0212900000       25.4963490561
  S        12.7408800000        2.0212900000       25.7152490561
  S        16.1096600000        7.6133700000       25.7152490561
  S        17.9731900000        1.1803700000       25.4963490561
  S        10.8773500000        8.4542900000       25.4963490561
  S        17.9731900000        8.4542900000       25.7152490561
  S        10.8773500000        1.1803700000       25.7152490561
  S        13.4934900000       10.8298700000       19.3748490561
  S        20.5893300000        5.2377900000       19.3748490561
  S        19.4570500000       16.6840300000       23.7335990561
  S        14.6257700000       25.1156300000       23.7335990561
  S        12.0096300000       19.9005300000       29.8550990561
  S        16.8409100000       15.4661300000       29.8550990561
  S        12.0096300000       15.4661300000       21.3564990561
  S        16.8409100000       19.9005300000       21.3564990561
  S        17.2419100000       13.4675300000       29.8550990561
  S        11.6086000000       21.8991300000       29.8550990561
  S        17.2419100000       21.8991300000       21.3564990561
  S        11.6086000000       13.4675300000       21.3564990561
  S        14.2247700000       23.1170300000       23.7335990561
  S        19.8580800000       18.6826300000       23.7335990561
  S        17.9029700000       16.3353600000       22.4448990561
  S        16.1798500000       25.4643000000       22.4448990561
  S        13.5637100000       19.5518600000       28.5663990561
  S        15.2868300000       15.8148000000       28.5663990561
  S        13.5637100000       15.8148000000       22.6451990561
  S        15.2868300000       19.5518600000       22.6451990561
  S        18.7960200000       13.1188600000       28.5663990561
  S        20.5191100000       22.2478000000       28.5663990561
  S        18.7960200000       22.2478000000       22.6451990561
  S        20.5191100000       13.1188600000       22.6451990561
  S        12.6706600000       22.7683600000       22.4448990561
  S        10.9475700000       19.0313000000       22.4448990561
  S        18.7068700000       15.6862700000       20.6784790561
  S        15.3759800000       13.2473900000       20.6784790561
  S        12.7598100000       18.9027700000       26.7999790561
  S        16.0907000000       16.4638900000       26.7999790561
  S        12.7598100000       16.4638900000       24.4116190561
  S        16.0907000000       18.9027700000       24.4116190561
  S        17.9921200000       25.3357700000       26.7999790561
  S        10.8584200000       22.8968900000       26.7999790561
  S        17.9921200000       22.8968900000       24.4116190561
  S        10.8584200000       25.3357700000       24.4116190561
  S        13.4745600000       22.1192700000       20.6784790561
  S        20.6082600000       19.6803900000       20.6784790561
  S        18.7258000000       17.2628700000       19.3748490561
  S        15.3570200000       24.5367900000       19.3748490561
  S        12.7408800000       20.4793700000       25.4963490561
  S        16.1096600000       14.8872900000       25.4963490561
  S        12.7408800000       14.8872900000       25.7152490561
  S        16.1096600000       20.4793700000       25.7152490561
  S        17.9731900000       14.0463700000       25.4963490561
  S        10.8773500000       21.3202900000       25.4963490561
  S        17.9731900000       21.3202900000       25.7152490561
  S        10.8773500000       14.0463700000       25.7152490561
  S        13.4934900000       23.6958700000       19.3748490561
  S        20.5893300000       18.1037900000       19.3748490561
  S        29.9216700000        3.8180300000       23.7335990561
  S        25.0903600000       12.2496300000       23.7335990561
  S        22.4742200000        7.0345300000       29.8550990561
  S        27.3055000000        2.6001300000       29.8550990561
  S        22.4742200000        2.6001300000       21.3564990561
  S        27.3055000000        7.0345300000       21.3564990561
  S        27.7065300000        0.6015300000       29.8550990561
  S        22.0732200000        9.0331300000       29.8550990561
  S        27.7065300000        9.0331300000       21.3564990561
  S        22.0732200000        0.6015300000       21.3564990561
  S        24.6893600000       10.2510300000       23.7335990561
  S        30.3226700000        5.8166300000       23.7335990561
  S        28.3675600000        3.4693600000       22.4448990561
  S        26.6444700000       12.5983000000       22.4448990561
  S        24.0283000000        6.6858600000       28.5663990561
  S        25.7514200000        2.9488000000       28.5663990561
  S        24.0283000000        2.9488000000       22.6451990561
  S        25.7514200000        6.6858600000       22.6451990561
  S        29.2606100000        0.2528600000       28.5663990561
  S        30.9837300000        9.3818000000       28.5663990561
  S        29.2606100000        9.3818000000       22.6451990561
  S        30.9837300000        0.2528600000       22.6451990561
  S        23.1352800000        9.9023600000       22.4448990561
  S        21.4121600000        6.1653000000       22.4448990561
  S        29.1714600000        2.8202700000       20.6784790561
  S        25.8405700000        0.3813900000       20.6784790561
  S        23.2244300000        6.0367700000       26.7999790561
  S        26.5553200000        3.5978900000       26.7999790561
  S        23.2244300000        3.5978900000       24.4116190561
  S        26.5553200000        6.0367700000       24.4116190561
  S        28.4567100000       12.4697700000       26.7999790561
  S        21.3230100000       10.0308900000       26.7999790561
  S        28.4567100000       10.0308900000       24.4116190561
  S        21.3230100000       12.4697700000       24.4116190561
  S        23.9391500000        9.2532700000       20.6784790561
  S        31.0728800000        6.8143900000       20.6784790561
  S        29.1903900000        4.3968700000       19.3748490561
  S        25.8216400000       11.6707900000       19.3748490561
  S        23.2054700000        7.6133700000       25.4963490561
  S        26.5742500000        2.0212900000       25.4963490561
  S        23.2054700000        2.0212900000       25.7152490561
  S        26.5742500000        7.6133700000       25.7152490561
  S        28.4377800000        1.1803700000       25.4963490561
  S        21.3419400000        8.4542900000       25.4963490561
  S        28.4377800000        8.4542900000       25.7152490561
  S        21.3419400000        1.1803700000       25.7152490561
  S        23.9581100000       10.8298700000       19.3748490561
  S        31.0539200000        5.2377900000       19.3748490561
  S        29.9216700000       16.6840300000       23.7335990561
  S        25.0903600000       25.1156300000       23.7335990561
  S        22.4742200000       19.9005300000       29.8550990561
  S        27.3055000000       15.4661300000       29.8550990561
  S        22.4742200000       15.4661300000       21.3564990561
  S        27.3055000000       19.9005300000       21.3564990561
  S        27.7065300000       13.4675300000       29.8550990561
  S        22.0732200000       21.8991300000       29.8550990561
  S        27.7065300000       21.8991300000       21.3564990561
  S        22.0732200000       13.4675300000       21.3564990561
  S        24.6893600000       23.1170300000       23.7335990561
  S        30.3226700000       18.6826300000       23.7335990561
  S        28.3675600000       16.3353600000       22.4448990561
  S        26.6444700000       25.4643000000       22.4448990561
  S        24.0283000000       19.5518600000       28.5663990561
  S        25.7514200000       15.8148000000       28.5663990561
  S        24.0283000000       15.8148000000       22.6451990561
  S        25.7514200000       19.5518600000       22.6451990561
  S        29.2606100000       13.1188600000       28.5663990561
  S        30.9837300000       22.2478000000       28.5663990561
  S        29.2606100000       22.2478000000       22.6451990561
  S        30.9837300000       13.1188600000       22.6451990561
  S        23.1352800000       22.7683600000       22.4448990561
  S        21.4121600000       19.0313000000       22.4448990561
  S        29.1714600000       15.6862700000       20.6784790561
  S        25.8405700000       13.2473900000       20.6784790561
  S        23.2244300000       18.9027700000       26.7999790561
  S        26.5553200000       16.4638900000       26.7999790561
  S        23.2244300000       16.4638900000       24.4116190561
  S        26.5553200000       18.9027700000       24.4116190561
  S        28.4567100000       25.3357700000       26.7999790561
  S        21.3230100000       22.8968900000       26.7999790561
  S        28.4567100000       22.8968900000       24.4116190561
  S        21.3230100000       25.3357700000       24.4116190561
  S        23.9391500000       22.1192700000       20.6784790561
  S        31.0728800000       19.6803900000       20.6784790561
  S        29.1903900000       17.2628700000       19.3748490561
  S        25.8216400000       24.5367900000       19.3748490561
  S        23.2054700000       20.4793700000       25.4963490561
  S        26.5742500000       14.8872900000       25.4963490561
  S        23.2054700000       14.8872900000       25.7152490561
  S        26.5742500000       20.4793700000       25.7152490561
  S        28.4377800000       14.0463700000       25.4963490561
  S        21.3419400000       21.3202900000       25.4963490561
  S        28.4377800000       21.3202900000       25.7152490561
  S        21.3419400000       14.0463700000       25.7152490561
  S        23.9581100000       23.6958700000       19.3748490561
  S        31.0539200000       18.1037900000       19.3748490561
  S         1.5315110604        8.9870501050       33.8944943754
  S         6.3210799195        0.5240454758       33.9955120540
  S         8.9883626330        5.8462957038       27.5824680541
  S         4.1486633925       10.2384505178       27.5496749604
  S         9.6121630532       11.7860421914       37.5579921213
  S         4.1751749007        5.8195987141       36.3025721675
  S         3.7516769406       12.2611678981       27.5488962424
  S         9.3761372265        3.8217677377       27.5758701531
  S         3.7503900799        3.7959186224       36.3178122065
  S        11.0199486838       13.1001211903       36.8056290711
  S         6.7240450908        2.5462814303       33.9103005768
  S         1.1191622398        6.9653322697       33.9653947671
  S         3.1410527737        9.3970400367       35.1322792401
  S         4.7750820463        0.1872907799       35.3337696269
  S         7.4370187398        6.2551098010       28.8941559970
  S         5.7123275391        9.8375686756       28.8469040320
  S         7.5857960061        9.6741100733       35.4771138818
  S         5.7277629047        6.1980479562       34.9915341402
  S         2.1948670972       12.6637109990       28.8551305109
  S         0.4809041066        3.3955504707       28.8490305136
  S         2.1883033376        3.4016067510       35.0196614111
  S         0.4910621850       12.6440511344       34.9788456798
  S         8.3346854265        2.9697445473       35.1428369655
  S         9.9993332504        6.6576895153       35.2562274101
  S         2.4347930970       10.0625236176       36.9613935523
  S         5.5608666984       12.3633790794       37.2107015868
  S         8.2280631342        6.8893367682       30.6969688322
  S         4.9351857417        9.2332488056       30.6641082918
  S         8.1701466408        9.1374157637       33.5581943552
  S         4.9495407193        6.8128030344       33.1781953118
  S         2.9981177835        0.3962786286       30.6807620664
  S        10.1603379124        2.8060730352       30.6868061582
  S         2.9559947696        2.7670433857       33.2051009021
  S        10.1749667206        0.3989956818       33.2177970630
  S         7.6458235984        3.6368224711       36.9781681005
  S         0.3373437078        6.0590557961       37.1316579045
  S         2.3793910488        8.4970222462       38.3134401845
  S         5.6902332825        1.2771453394       38.4148618808
  S         8.2733262847        5.2989100881       32.0179074071
  S         4.9161560602       10.8392605493       31.9643586016
  S         8.1638677819       10.7497381284       32.3105554310
  S         4.8921875931        5.2107652364       31.8697816359
  S         3.0446672504       11.7130569520       31.9889984114
  S        10.1351833213        4.4057461391       31.9989268927
  S         3.0141659109        4.3512850256       31.8739229215
  S        10.0340535808       11.7017169405       32.1413855348
  S         7.6023827129        2.0721791501       38.3309748245
  S         0.4667228372        7.7018953325       38.3839530214
  S         1.5305759080       21.8147130649       33.9327594174
  S         6.3910474876       13.3229953537       34.1283498400
  S         9.0097319775       18.6807373778       27.5827806207
  S         4.1554398859       23.1000775574       27.5491377915
  S         8.9593883536       23.0852678403       36.3234286336
  S         4.2134583814       18.6500392677       36.3828262903
  S         3.7679008318       25.1246330124       27.5627681476
  S         9.4031957639       16.6572907050       27.5764287238
  S         3.7951188638       16.6250646571       36.3989191319
  S         9.3736008728       25.1101509170       36.3315519974
  S         6.8608711028       15.3514878676       34.0854825759
  S         1.1257081769       19.7930600194       34.0411125169
  S         3.1472764231       22.2528453739       35.1512933498
  S         4.7778002017       12.9573515228       35.3915087133
  S         7.4494356410       19.0777896239       28.8849738863
  S         5.7138458709       22.6813406944       28.8472387109
  S         7.4077698278       22.7001005997       35.0101162792
  S         5.7611796105       19.0287017425       35.0633508579
  S         2.2098318740       25.5233825077       28.8675984868
  S         0.4890667117       16.2727485674       28.8449982101
  S         2.2292104603       16.2215099074       35.1082753284
  S         0.4951031320       25.5010044629       35.0100927547
  S         8.3818011891       15.7030430751       35.4272139213
  S        10.0063738112       19.4890891843       35.1394312011
  S         2.4684297034       22.9439091687       36.9803171654
  S         5.5580886952       25.3631463939       37.1692096928
  S         8.2322661585       19.6574274741       30.7087967046
  S         4.9278153962       22.0527453335       30.6539018911
  S         8.1921965682       22.0872382831       33.1950466376
  S         4.9726807116       19.6397529831       33.2490895180
  S         2.9822562445       13.2976954756       30.6580923219
  S        10.1897546060       15.5845330507       30.6790064692
  S         2.9926744744       15.5909657874       33.2903645907
  S        10.2395654937       13.2565381646       33.4702003781
  S         7.5898973591       16.3941169458       37.2172045351
  S         0.3670290807       18.9378986607       37.2251340904
  S         2.4214760615       21.3920641174       38.3482890363
  S         5.6199036836       13.9714135196       38.5316092638
  S         8.2604149940       18.0401182422       32.0008434661
  S         4.9003488620       23.6416141287       31.9776027422
  S         8.2511499783       23.6865484678       31.8834855922
  S         4.9146624544       18.0335038237       31.9467921562
  S         3.0357361203       24.5282414653       31.9912750175
  S        10.1277400810       17.1610612534       32.0167799274
  S         3.0369254320       17.1765165665       31.9599832714
  S        10.1311350577       24.5403133351       31.8954243420
  S         7.5085260968       14.8024476500       38.5258119687
  S         0.5075822683       20.6021520524       38.4467055587
  S        12.0100787708        9.0928573371       34.2287397345
  S        16.8564625163        0.6451780362       33.9471639919
  S        19.4666324849        5.8304954002       27.5576605206
  S        14.6490700131       10.2413416334       27.5595284436
  S        19.4335294347       10.2279579094       36.2916257362
  S        14.5905691738        5.7936225491       36.4461798517
  S        14.2479017738       12.2638790011       27.5717443316
  S        19.8629174369        3.8077265451       27.5459050643
  S        14.1649345510        3.7716541784       36.3995551416
  S        19.8453286384       12.2525091650       36.3036789106
  S        17.2598780998        2.6669706788       34.0574225043
  S        11.6457493063        7.0573478775       34.0727506696
  S        13.6420445207        9.3709923962       35.4915020071
  S        15.2409629888        0.2028638227       35.1662044794
  S        17.9036030267        6.2225814808       28.8576027547
  S        16.2035907357        9.8353831983       28.8686274811
  S        17.8860003113        9.8427724763       34.9720956138
  S        16.1655297579        6.2106548727       35.1684837197
  S        12.6638798827       12.6479368372       28.8482860632
  S        10.9400449698        3.4115788004       28.8700565432
  S        12.6226349190        3.4170737735       35.0662582997
  S        11.6614575349       12.5765976702       34.9615701684
  S        18.8058488209        2.9897398855       35.3982991145
  S        20.4734109926        6.6295120323       35.1447884300
  S        12.9105232757        9.9738395712       37.3284203947
  S        15.8919509435       12.3426598180       36.8304826488
  S        18.6812519401        6.8141152689       30.6800454371
  S        15.4165073288        9.1629040849       30.6576769170
  S        18.6736427588        9.2399026043       33.1564275282
  S        15.4224474296        6.8682796397       33.3509513003
  S        13.4577518577        0.4263541345       30.6693711449
  S        20.6384363328        2.7527544342       30.6467957770
  S        13.4177363975        2.8312519957       33.2463951257
  S        20.6384984963        0.4236479995       33.2295807192
  S        18.0216115140        3.5173851295       37.2417150867
  S        10.5684081026        6.0526324723       37.1482300219
  S        12.5988986708        8.3702300831       38.5886469554
  S        15.9705689970        1.0592829712       38.3643198928
  S        18.7089993711        5.1982768963       31.9715277378
  S        15.3019253398       10.7250286284       32.0117443500
  S        18.7130699066       10.8468808842       31.8548497887
  S        15.3732681023        5.2986930010       32.0012313800
  S        13.4129044641       11.5584469209       31.9447127886
  S        20.5809137804        4.3278459923       31.9860843939
  S        13.4895456132        4.4556775542       31.9669053025
  S        20.5899156369       11.7085845594       31.8609218562
  S        17.8840109042        1.8508325928       38.4607410468
  S        10.6271712131        7.7337903554       38.3674108198
  S        12.0214949266       21.9443760035       34.0042753258
  S        16.9441937971       13.5704123544       33.8586588034
  S        19.4691093496       18.6935237759       27.5417844346
  S        14.6205605962       23.1076947746       27.5622883823
  S        19.4421847578       23.0923277458       36.3252303080
  S        14.6450330044       18.7244266004       36.3418671668
  S        14.2311056571       25.1319168232       27.5577920216
  S        19.8602315938       16.6697209855       27.5485574419
  S        14.2086280293       16.7036475366       36.3444482295
  S        19.8523439878       25.1177139465       36.3403407279
  S        17.3421958650       15.5869113586       34.0559191137
  S        11.6262368504       19.9203939173       33.9201937107
  S        13.5601490257       22.2883139634       35.3488882394
  S        15.2831883923       13.1001625285       35.0021170503
  S        17.9081942487       19.1027850991       28.8393569269
  S        16.1780591323       22.7046540395       28.8667142634
  S        17.8908522786       22.7095990831       35.0110569682
  S        16.2014290625       19.1045172187       35.0327461993
  S        12.6723555474       25.5427893279       28.8578309035
  S        10.9628945291       16.2477981332       28.8781754524
  S        12.6522039210       16.3345228565       35.0356797008
  S        10.9391331139       25.5053540704       35.0375400171
  S        18.8326407901       15.8615259407       35.4687441630
  S        20.4769625202       19.4946770325       35.1237402226
  S        12.7667950042       22.8334400106       37.1833886620
  S        15.9213585470       25.2413589541       36.9940094151
  S        18.6900460077       19.7159213901       30.6524962254
  S        15.3894740051       22.0852040633       30.6748939873
  S        18.6748748265       22.1025511834       33.1944833817
  S        15.4257353356       19.7145218375       33.2131310884
  S        13.4046192586       13.2063290885       30.6959259748
  S        20.6313714946       15.6475795124       30.6605733396
  S        13.4290177727       15.6778051926       33.2326186523
  S        20.6490782224       13.2891387879       33.1960327741
  S        17.9750892463       16.3331974699       37.2949924476
  S        10.6809120156       18.8187167539       36.9781942114
  S        12.6312105067       21.1814125984       38.4218881878
  S        15.8714540357       13.8462539032       38.2514921423
  S        18.7130829303       18.1147378086       31.9620277290
  S        15.3474904282       23.6756435100       31.9967628854
  S        18.7193478828       23.7058693648       31.8880754741
  S        15.3728947391       18.1125487284       31.9028044781
  S        13.4825087303       24.5618400932       31.9842517304
  S        20.5820910671       17.2380525849       31.9818048939
  S        13.4930158205       17.2577390231       31.8999305122
  S        20.5932580349       24.5729595691       31.8967609300
  S        17.7795942921       14.6295922682       38.4549470226
  S        10.7200467013       20.3842745205       38.3307094050
  S        22.4792613788        9.0595406554       33.9384953000
  S        27.3033496982        0.5744700945       33.9349217325
  S        29.9264216476        5.8269849112       27.5485351241
  S        25.0878127922       10.2362032500       27.5450286792
  S        29.9310157916       10.2287095533       36.3070592767
  S        25.0858784888        5.8217161364       36.3030945421
  S        24.6953228044       12.2597009063       27.5438556711
  S        30.3171577013        3.8030861031       27.5465752954
  S        24.6784191915        3.7960566220       36.3006346325
  S        30.3385097307       12.2543200181       36.2973972880
  S        27.7083968413        2.5989024506       33.9281712340
  S        22.0747046487        7.0355964478       33.8951202508
  S        24.0425550268        9.4185244738       35.2494224747
  S        25.7203743865        0.1950465202       35.2159887640
  S        28.3661849891        6.2303999152       28.8491964136
  S        26.6455814482        9.8328049434       28.8484289834
  S        28.3683691450        9.8308438361       35.0102887565
  S        26.6440331850        6.2177146690       35.0003676041
  S        23.1342927931       12.6636826729       28.8431730179
  S        21.4224101235        3.3995979312       28.8465802387
  S        23.1263535787        3.4029080213       34.9899537829
  S        21.4115864157       12.6469420175       35.0094155067
  S        29.2907618702        2.9853444951       35.2076883925
  S        30.9602031384        6.6249483519       35.2942145014
  S        23.2842107324        9.9990659601       37.0869195601
  S        26.4835580859       12.4798373807       37.0911880846
  S        29.1504443117        6.8476685535       30.6597993377
  S        25.8584947084        9.2152198126       30.6578057744
  S        29.1395172457        9.1990177153       33.1968146728
  S        25.8672569610        6.8420086903       33.1866463905
  S        23.9165834069        0.4053191431       30.6655985226
  S        31.0874965788        2.7776942340       30.6584183218
  S        23.9105458159        2.7866144463       33.1767049728
  S        31.1059702585        0.3869387235       33.1969307318
  S        28.5599766854        3.6022277389       37.0440383629
  S        21.1752339073        5.9869823151       36.9836591615
  S        23.1635458186        8.3667657296       38.3542833731
  S        26.5479469596        1.2034228350       38.3483357791
  S        29.1879829205        5.2536259048       31.9775930387
  S        25.8205200724       10.8106142223       31.9738068357
  S        29.1817441499       10.7819827502       31.8648992468
  S        25.8251415963        5.2526550020       31.8627652606
  S        23.9523651104       11.6889081300       31.9719482094
  S        31.0552945586        4.3738738777       31.9737108443
  S        23.9530338403        4.3813506858       31.8593276167
  S        31.0541929047       11.6529613075       31.8560266462
  S        28.4635241306        1.9952220849       38.3450613451
  S        21.2482793746        7.5755337647       38.3088111326
  S        22.4990766174       21.9479438846       33.9939744569
  S        27.2888557395       13.4209791533       33.9435297079
  S        29.9187837370       18.6929341479       27.5490346387
  S        25.0908866955       23.1043552900       27.5483664976
  S        29.9267290164       23.0867668750       36.3276661491
  S        25.0910022821       18.6839430276       36.3057139260
  S        24.6962012075       25.1274638725       27.5504811151
  S        30.3165065749       16.6703680530       27.5505019027
  S        24.6834213240       16.6585356871       36.3002725265
  S        30.3362579368       25.1121569857       36.3213469229
  S        27.6925981291       15.4450511232       33.8999258721
  S        22.0945464238       19.9252664456       33.9038058739
  S        24.0461867485       22.2802183762       35.3309915066
  S        25.7252272995       13.0609441857       35.2538508599
  S        28.3606601136       19.0926499152       28.8536382437
  S        26.6501373474       22.7012885107       28.8504463982
  S        28.3686831227       22.6894127823       35.0251038293
  S        26.6472416291       19.0820559367       35.0010627576
  S        23.1352995509       25.5272115679       28.8511137569
  S        21.4185866838       16.2688693665       28.8526182396
  S        23.1300543591       16.2679305394       34.9900097147
  S        21.4119703374       25.5219473695       35.0418580032
  S        29.2930034354       15.8512547176       35.1503312559
  S        30.9752000968       19.4705679834       35.3838175177
  S        23.2650175493       22.8200735166       37.1717749356
  S        26.4500947796       25.3207007213       37.0565464135
  S        29.1459896981       19.7245256871       30.6585908894
  S        25.8660235900       22.0740706072       30.6577661957
  S        29.1444857917       22.0638570946       33.2115103339
  S        25.8689189540       19.7080678030       33.1888124737
  S        23.9168374661       13.2827870794       30.6538142349
  S        31.1107429158       15.6658828311       30.6646136208
  S        23.9129034877       15.6513827713       33.1766995402
  S        31.0944345362       13.2530790175       33.1655906438
  S        28.5897867988       16.4930610355       36.9889713384
  S        21.1543128276       18.8114728422       36.9566625944
  S        23.1252517421       21.1602042989       38.4011506887
  S        26.6028958528       14.1117365777       38.3591268587
  S        29.2056322429       18.1387716073       31.9854971787
  S        25.8201425862       23.6628463443       31.9814381563
  S        29.1878557099       23.6525004409       31.8857106749
  S        25.8278503309       18.1194923249       31.8636518543
  S        23.9494745423       24.5358910152       31.9746192001
  S        31.0800291571       17.2731630070       31.9665517302
  S        23.9563805834       17.2466643541       31.8598364700
  S        31.0605327884       24.5225428379       31.8819791529
  S        28.5176613866       14.9042534458       38.3137159892
  S        21.2099349694       20.3724636156       38.3148233769
 Li         9.7787708154        9.6425581107       36.4730807923
 Li         8.0238494795       12.0102400095       35.8024471261
