     582
 i =      134, E =     -5927.9381630420
  S         9.1190950000        3.7928950000       23.4996721073
  S         4.2878150000       12.2244950000       23.4996721073
  S         1.6716450000        7.0093950000       29.6211721073
  S         6.5029550000        2.5749950000       29.6211721073
  S         1.6716450000        2.5749950000       21.1225721073
  S         6.5029550000        7.0093950000       21.1225721073
  S         6.9039650000        0.5763950000       29.6211721073
  S         1.2706450000        9.0079950000       29.6211721073
  S         6.9039650000        9.0079950000       21.1225721073
  S         1.2706450000        0.5763950000       21.1225721073
  S         3.8867850000       10.2258950000       23.4996721073
  S         9.5200950000        5.7914950000       23.4996721073
  S         7.5650250000        3.4442250000       22.2109721073
  S         5.8418950000       12.5731650000       22.2109721073
  S         3.2257650000        6.6607250000       28.3324621073
  S         4.9488550000        2.9236650000       28.3324621073
  S         3.2257650000        2.9236650000       22.4112621073
  S         4.9488550000        6.6607250000       22.4112621073
  S         8.4580450000        0.2277250000       28.3324621073
  S        10.1811650000        9.3566650000       28.3324621073
  S         8.4580450000        9.3566650000       22.4112621073
  S        10.1811650000        0.2277250000       22.4112621073
  S         2.3327050000        9.8772250000       22.2109721073
  S         0.6095950000        6.1401650000       22.2109721073
  S         8.3688950000        2.7951350000       20.4445521073
  S         5.0380050000        0.3562550000       20.4445521073
  S         2.4218550000        6.0116350000       26.5660421073
  S         5.7527450000        3.5727550000       26.5660421073
  S         2.4218550000        3.5727550000       24.1776921073
  S         5.7527450000        6.0116350000       24.1776921073
  S         7.6541750000       12.4446350000       26.5660421073
  S         0.5204350000       10.0057550000       26.5660421073
  S         7.6541750000       10.0057550000       24.1776921073
  S         0.5204350000       12.4446350000       24.1776921073
  S         3.1366050000        9.2281350000       20.4445521073
  S        10.2703150000        6.7892550000       20.4445521073
  S         8.3878550000        4.3717350000       19.1409121073
  S         5.0190650000       11.6456550000       19.1409121073
  S         2.4029250000        7.5882350000       25.2624221073
  S         5.7716750000        1.9961550000       25.2624221073
  S         2.4029250000        1.9961550000       25.4813121073
  S         5.7716750000        7.5882350000       25.4813121073
  S         7.6352050000        1.1552350000       25.2624221073
  S         0.5394050000        8.4291550000       25.2624221073
  S         7.6352050000        8.4291550000       25.4813121073
  S         0.5394050000        1.1552350000       25.4813121073
  S         3.1555450000       10.8047350000       19.1409121073
  S        10.2513850000        5.2126550000       19.1409121073
  S         9.1190950000       16.6588950000       23.4996721073
  S         4.2878150000       25.0904950000       23.4996721073
  S         1.6716450000       19.8753950000       29.6211721073
  S         6.5029550000       15.4409950000       29.6211721073
  S         1.6716450000       15.4409950000       21.1225721073
  S         6.5029550000       19.8753950000       21.1225721073
  S         6.9039650000       13.4423950000       29.6211721073
  S         1.2706450000       21.8739950000       29.6211721073
  S         6.9039650000       21.8739950000       21.1225721073
  S         1.2706450000       13.4423950000       21.1225721073
  S         3.8867850000       23.0918950000       23.4996721073
  S         9.5200950000       18.6574950000       23.4996721073
  S         7.5650250000       16.3102250000       22.2109721073
  S         5.8418950000       25.4391650000       22.2109721073
  S         3.2257650000       19.5267250000       28.3324621073
  S         4.9488550000       15.7896650000       28.3324621073
  S         3.2257650000       15.7896650000       22.4112621073
  S         4.9488550000       19.5267250000       22.4112621073
  S         8.4580450000       13.0937250000       28.3324621073
  S        10.1811650000       22.2226650000       28.3324621073
  S         8.4580450000       22.2226650000       22.4112621073
  S        10.1811650000       13.0937250000       22.4112621073
  S         2.3327050000       22.7432250000       22.2109721073
  S         0.6095950000       19.0061650000       22.2109721073
  S         8.3688950000       15.6611350000       20.4445521073
  S         5.0380050000       13.2222550000       20.4445521073
  S         2.4218550000       18.8776350000       26.5660421073
  S         5.7527450000       16.4387550000       26.5660421073
  S         2.4218550000       16.4387550000       24.1776921073
  S         5.7527450000       18.8776350000       24.1776921073
  S         7.6541750000       25.3106350000       26.5660421073
  S         0.5204350000       22.8717550000       26.5660421073
  S         7.6541750000       22.8717550000       24.1776921073
  S         0.5204350000       25.3106350000       24.1776921073
  S         3.1366050000       22.0941350000       20.4445521073
  S        10.2703150000       19.6552550000       20.4445521073
  S         8.3878550000       17.2377350000       19.1409121073
  S         5.0190650000       24.5116550000       19.1409121073
  S         2.4029250000       20.4542350000       25.2624221073
  S         5.7716750000       14.8621550000       25.2624221073
  S         2.4029250000       14.8621550000       25.4813121073
  S         5.7716750000       20.4542350000       25.4813121073
  S         7.6352050000       14.0212350000       25.2624221073
  S         0.5394050000       21.2951550000       25.2624221073
  S         7.6352050000       21.2951550000       25.4813121073
  S         0.5394050000       14.0212350000       25.4813121073
  S         3.1555450000       23.6707350000       19.1409121073
  S        10.2513850000       18.0786550000       19.1409121073
  S        19.5836850000        3.7928950000       23.4996721073
  S        14.7524050000       12.2244950000       23.4996721073
  S        12.1362650000        7.0093950000       29.6211721073
  S        16.9675550000        2.5749950000       29.6211721073
  S        12.1362650000        2.5749950000       21.1225721073
  S        16.9675550000        7.0093950000       21.1225721073
  S        17.3685550000        0.5763950000       29.6211721073
  S        11.7352450000        9.0079950000       29.6211721073
  S        17.3685550000        9.0079950000       21.1225721073
  S        11.7352450000        0.5763950000       21.1225721073
  S        14.3514050000       10.2258950000       23.4996721073
  S        19.9847250000        5.7914950000       23.4996721073
  S        18.0296050000        3.4442250000       22.2109721073
  S        16.3064950000       12.5731650000       22.2109721073
  S        13.6903550000        6.6607250000       28.3324621073
  S        15.4134750000        2.9236650000       28.3324621073
  S        13.6903550000        2.9236650000       22.4112621073
  S        15.4134750000        6.6607250000       22.4112621073
  S        18.9226550000        0.2277250000       28.3324621073
  S        20.6457550000        9.3566650000       28.3324621073
  S        18.9226550000        9.3566650000       22.4112621073
  S        20.6457550000        0.2277250000       22.4112621073
  S        12.7972950000        9.8772250000       22.2109721073
  S        11.0742150000        6.1401650000       22.2109721073
  S        18.8335050000        2.7951350000       20.4445521073
  S        15.5026250000        0.3562550000       20.4445521073
  S        12.8864450000        6.0116350000       26.5660421073
  S        16.2173450000        3.5727550000       26.5660421073
  S        12.8864450000        3.5727550000       24.1776921073
  S        16.2173450000        6.0116350000       24.1776921073
  S        18.1187550000       12.4446350000       26.5660421073
  S        10.9850650000       10.0057550000       26.5660421073
  S        18.1187550000       10.0057550000       24.1776921073
  S        10.9850650000       12.4446350000       24.1776921073
  S        13.6012050000        9.2281350000       20.4445521073
  S        20.7349050000        6.7892550000       20.4445521073
  S        18.8524350000        4.3717350000       19.1409121073
  S        15.4836650000       11.6456550000       19.1409121073
  S        12.8675250000        7.5882350000       25.2624221073
  S        16.2363050000        1.9961550000       25.2624221073
  S        12.8675250000        1.9961550000       25.4813121073
  S        16.2363050000        7.5882350000       25.4813121073
  S        18.0998250000        1.1552350000       25.2624221073
  S        11.0039850000        8.4291550000       25.2624221073
  S        18.0998250000        8.4291550000       25.4813121073
  S        11.0039850000        1.1552350000       25.4813121073
  S        13.6201250000       10.8047350000       19.1409121073
  S        20.7159750000        5.2126550000       19.1409121073
  S        19.5836850000       16.6588950000       23.4996721073
  S        14.7524050000       25.0904950000       23.4996721073
  S        12.1362650000       19.8753950000       29.6211721073
  S        16.9675550000       15.4409950000       29.6211721073
  S        12.1362650000       15.4409950000       21.1225721073
  S        16.9675550000       19.8753950000       21.1225721073
  S        17.3685550000       13.4423950000       29.6211721073
  S        11.7352450000       21.8739950000       29.6211721073
  S        17.3685550000       21.8739950000       21.1225721073
  S        11.7352450000       13.4423950000       21.1225721073
  S        14.3514050000       23.0918950000       23.4996721073
  S        19.9847250000       18.6574950000       23.4996721073
  S        18.0296050000       16.3102250000       22.2109721073
  S        16.3064950000       25.4391650000       22.2109721073
  S        13.6903550000       19.5267250000       28.3324621073
  S        15.4134750000       15.7896650000       28.3324621073
  S        13.6903550000       15.7896650000       22.4112621073
  S        15.4134750000       19.5267250000       22.4112621073
  S        18.9226550000       13.0937250000       28.3324621073
  S        20.6457550000       22.2226650000       28.3324621073
  S        18.9226550000       22.2226650000       22.4112621073
  S        20.6457550000       13.0937250000       22.4112621073
  S        12.7972950000       22.7432250000       22.2109721073
  S        11.0742150000       19.0061650000       22.2109721073
  S        18.8335050000       15.6611350000       20.4445521073
  S        15.5026250000       13.2222550000       20.4445521073
  S        12.8864450000       18.8776350000       26.5660421073
  S        16.2173450000       16.4387550000       26.5660421073
  S        12.8864450000       16.4387550000       24.1776921073
  S        16.2173450000       18.8776350000       24.1776921073
  S        18.1187550000       25.3106350000       26.5660421073
  S        10.9850650000       22.8717550000       26.5660421073
  S        18.1187550000       22.8717550000       24.1776921073
  S        10.9850650000       25.3106350000       24.1776921073
  S        13.6012050000       22.0941350000       20.4445521073
  S        20.7349050000       19.6552550000       20.4445521073
  S        18.8524350000       17.2377350000       19.1409121073
  S        15.4836650000       24.5116550000       19.1409121073
  S        12.8675250000       20.4542350000       25.2624221073
  S        16.2363050000       14.8621550000       25.2624221073
  S        12.8675250000       14.8621550000       25.4813121073
  S        16.2363050000       20.4542350000       25.4813121073
  S        18.0998250000       14.0212350000       25.2624221073
  S        11.0039850000       21.2951550000       25.2624221073
  S        18.0998250000       21.2951550000       25.4813121073
  S        11.0039850000       14.0212350000       25.4813121073
  S        13.6201250000       23.6707350000       19.1409121073
  S        20.7159750000       18.0786550000       19.1409121073
  S        30.0483050000        3.7928950000       23.4996721073
  S        25.2170050000       12.2244950000       23.4996721073
  S        22.6008550000        7.0093950000       29.6211721073
  S        27.4321350000        2.5749950000       29.6211721073
  S        22.6008550000        2.5749950000       21.1225721073
  S        27.4321350000        7.0093950000       21.1225721073
  S        27.8331750000        0.5763950000       29.6211721073
  S        22.1998550000        9.0079950000       29.6211721073
  S        27.8331750000        9.0079950000       21.1225721073
  S        22.1998550000        0.5763950000       21.1225721073
  S        24.8160050000       10.2258950000       23.4996721073
  S        30.4493050000        5.7914950000       23.4996721073
  S        28.4942050000        3.4442250000       22.2109721073
  S        26.7711050000       12.5731650000       22.2109721073
  S        24.1549450000        6.6607250000       28.3324621073
  S        25.8780550000        2.9236650000       28.3324621073
  S        24.1549450000        2.9236650000       22.4112621073
  S        25.8780550000        6.6607250000       22.4112621073
  S        29.3872450000        0.2277250000       28.3324621073
  S        31.1103750000        9.3566650000       28.3324621073
  S        29.3872450000        9.3566650000       22.4112621073
  S        31.1103750000        0.2277250000       22.4112621073
  S        23.2619250000        9.8772250000       22.2109721073
  S        21.5388050000        6.1401650000       22.2109721073
  S        29.2980950000        2.7951350000       20.4445521073
  S        25.9672050000        0.3562550000       20.4445521073
  S        23.3510750000        6.0116350000       26.5660421073
  S        26.6819650000        3.5727550000       26.5660421073
  S        23.3510750000        3.5727550000       24.1776921073
  S        26.6819650000        6.0116350000       24.1776921073
  S        28.5833550000       12.4446350000       26.5660421073
  S        21.4496450000       10.0057550000       26.5660421073
  S        28.5833550000       10.0057550000       24.1776921073
  S        21.4496450000       12.4446350000       24.1776921073
  S        24.0657950000        9.2281350000       20.4445521073
  S        31.1995250000        6.7892550000       20.4445521073
  S        29.3170350000        4.3717350000       19.1409121073
  S        25.9482750000       11.6456550000       19.1409121073
  S        23.3321150000        7.5882350000       25.2624221073
  S        26.7008850000        1.9961550000       25.2624221073
  S        23.3321150000        1.9961550000       25.4813121073
  S        26.7008850000        7.5882350000       25.4813121073
  S        28.5644150000        1.1552350000       25.2624221073
  S        21.4685850000        8.4291550000       25.2624221073
  S        28.5644150000        8.4291550000       25.4813121073
  S        21.4685850000        1.1552350000       25.4813121073
  S        24.0847550000       10.8047350000       19.1409121073
  S        31.1805650000        5.2126550000       19.1409121073
  S        30.0483050000       16.6588950000       23.4996721073
  S        25.2170050000       25.0904950000       23.4996721073
  S        22.6008550000       19.8753950000       29.6211721073
  S        27.4321350000       15.4409950000       29.6211721073
  S        22.6008550000       15.4409950000       21.1225721073
  S        27.4321350000       19.8753950000       21.1225721073
  S        27.8331750000       13.4423950000       29.6211721073
  S        22.1998550000       21.8739950000       29.6211721073
  S        27.8331750000       21.8739950000       21.1225721073
  S        22.1998550000       13.4423950000       21.1225721073
  S        24.8160050000       23.0918950000       23.4996721073
  S        30.4493050000       18.6574950000       23.4996721073
  S        28.4942050000       16.3102250000       22.2109721073
  S        26.7711050000       25.4391650000       22.2109721073
  S        24.1549450000       19.5267250000       28.3324621073
  S        25.8780550000       15.7896650000       28.3324621073
  S        24.1549450000       15.7896650000       22.4112621073
  S        25.8780550000       19.5267250000       22.4112621073
  S        29.3872450000       13.0937250000       28.3324621073
  S        31.1103750000       22.2226650000       28.3324621073
  S        29.3872450000       22.2226650000       22.4112621073
  S        31.1103750000       13.0937250000       22.4112621073
  S        23.2619250000       22.7432250000       22.2109721073
  S        21.5388050000       19.0061650000       22.2109721073
  S        29.2980950000       15.6611350000       20.4445521073
  S        25.9672050000       13.2222550000       20.4445521073
  S        23.3510750000       18.8776350000       26.5660421073
  S        26.6819650000       16.4387550000       26.5660421073
  S        23.3510750000       16.4387550000       24.1776921073
  S        26.6819650000       18.8776350000       24.1776921073
  S        28.5833550000       25.3106350000       26.5660421073
  S        21.4496450000       22.8717550000       26.5660421073
  S        28.5833550000       22.8717550000       24.1776921073
  S        21.4496450000       25.3106350000       24.1776921073
  S        24.0657950000       22.0941350000       20.4445521073
  S        31.1995250000       19.6552550000       20.4445521073
  S        29.3170350000       17.2377350000       19.1409121073
  S        25.9482750000       24.5116550000       19.1409121073
  S        23.3321150000       20.4542350000       25.2624221073
  S        26.7008850000       14.8621550000       25.2624221073
  S        23.3321150000       14.8621550000       25.4813121073
  S        26.7008850000       20.4542350000       25.4813121073
  S        28.5644150000       14.0212350000       25.2624221073
  S        21.4685850000       21.2951550000       25.2624221073
  S        28.5644150000       21.2951550000       25.4813121073
  S        21.4685850000       14.0212350000       25.4813121073
  S        24.0847550000       23.6707350000       19.1409121073
  S        31.1805650000       18.0786550000       19.1409121073
  S         1.6971441699        9.0737288393       33.8892935258
  S         6.4055963088        0.4499011507       33.9260783634
  S         9.1026224968        5.8228510233       27.3545304457
  S         4.2743257074       10.2182645805       27.3457761861
  S         9.6269419051       12.0768155033       37.3865645485
  S         4.2902449610        5.7955301129       36.1372917130
  S         3.8794071709       12.2420501639       27.3452504986
  S         9.5054131050        3.8009761173       27.3242461173
  S         3.8845186103        3.7717258263       36.0963474651
  S        11.1333971301       13.2573250159       36.5420302199
  S         6.7985377861        2.4635036243       33.6748479296
  S         1.3065255144        7.0555563489       33.6873814540
  S         3.1503461399        9.3539366691       35.3368418539
  S         4.9411811704        0.2091474053       35.3706938019
  S         7.5636580153        6.2044033913       28.6875490535
  S         5.8486641127        9.8184222077       28.6312412333
  S         8.3306555468        9.2706068825       35.3867480885
  S         5.8512606768        6.2055513904       34.8399824629
  S         2.3258420779       12.6470521406       28.6541246608
  S         0.6336159239        3.3780111433       28.5998921427
  S         2.3427053664        3.3954505244       34.7660688003
  S         0.6142196903       12.6267613128       34.7794985424
  S         8.4803629729        2.9817600971       34.7601476793
  S        10.6715638161        5.9979191239       35.2117899535
  S         2.2516657496        9.8082600814       37.1488799667
  S         5.6183594527       11.7124966703       36.8236140129
  S         8.3685692315        6.8052968710       30.4974086260
  S         5.0911744427        9.2166191443       30.4577535888
  S         8.6436980967        8.8808995915       33.3473694523
  S         5.1021637575        6.8779193047       33.0342563869
  S         3.1103595676        0.3875581428       30.4505491170
  S        10.3628242912        2.7629638468       30.4150102618
  S         3.1383871485        2.8130454203       32.9474568300
  S        10.2465891872        0.3687996927       32.9816320008
  S         7.8971521916        3.7831038211       36.5798341684
  S         0.2171567607        5.8020358198       36.6368110236
  S         2.0651039882        8.0994329412       38.2954001033
  S         6.0356775919        1.5470396833       38.2968618647
  S         8.4538704341        5.1956595528       31.7914804432
  S         5.0612859430       10.8266085507       31.7573338061
  S         8.2862341070       10.5805445775       32.3080060853
  S         5.0625642632        5.3061617272       31.6888538339
  S         3.1786770852       11.6753856475       31.7788857587
  S        10.3357418138        4.3481566440       31.7418589707
  S         3.1896177730        4.4346801278       31.6618745098
  S        10.0704500455       11.6588983910       31.9381092750
  S         7.9381267594        2.3271486104       38.0517123778
  S         0.1670083738        7.2971184161       38.0653581235
  S         1.6872794041       21.7503781068       33.7220353480
  S         6.5624623753       13.3110549222       34.0166787628
  S         9.1232176945       18.6649772956       27.3767148519
  S         4.2804619317       23.0675140613       27.3388587623
  S         9.1065250527       23.0895169968       36.1460057162
  S         4.4954656817       18.7319461281       36.2854470264
  S         3.8900039364       25.0918785014       27.3407906544
  S         9.5180383370       16.6413796066       27.3676157523
  S         3.9660225453       16.7409965645       36.5354326711
  S         9.4955403437       25.1188734646       36.1209626451
  S         7.0509350622       15.3199150370       34.0699049784
  S         1.2835919349       19.7346671663       33.9364224117
  S         3.3351748936       22.2456067664       34.8751251036
  S         4.9028393361       12.7799674053       35.2122397295
  S         7.5559727977       19.0619733237       28.6725204990
  S         5.8410023197       22.6582397998       28.6368578577
  S         7.5511436374       22.6634972510       34.8478618370
  S         5.9606375655       18.9471331736       34.8555724499
  S         2.3289289414       25.4921897378       28.6419923328
  S         0.6225785899       16.2504557750       28.6186960406
  S         2.4331763297       16.1423383981       35.2673679312
  S         0.6171513086       25.5033260707       34.7992197806
  S         8.7208378894       15.6142744019       35.3511632383
  S        10.2481518708       19.5862965726       35.3635886009
  S         2.7085695150       23.0180123078       36.6905075073
  S         5.8288748385       25.5344230237       37.1992199539
  S         8.3240737779       19.6577032226       30.4974887507
  S         5.0639078813       22.0540908100       30.4569333251
  S         8.3321908040       22.0253100465       33.0400094612
  S         5.0507752455       19.4693875875       33.0644407800
  S         3.1152988400       13.2705903509       30.4624977487
  S        10.2752672682       15.5892229442       30.4830029322
  S         3.1939886960       15.3987455785       33.5006957425
  S        10.3219189845       13.1910951796       33.2486209960
  S         8.2847592813       16.9589213853       36.8119894794
  S         0.6046548211       19.0288216598       37.1717490374
  S         2.6959005828       21.5257991298       38.1240476021
  S         5.8450017542       12.9138433303       38.4901700518
  S         8.3510879372       18.0495234248       31.8032301721
  S         5.0431188038       23.6655977612       31.7545703821
  S         8.3716455392       23.6006269336       31.6950787067
  S         4.9686236641       17.7802378546       31.8740891865
  S         3.1700234972       24.5341584805       31.7783626023
  S        10.2187678380       17.1729361257       31.8122829979
  S         3.1242710453       16.8796638722       32.0484577683
  S        10.2348282462       24.4884842015       31.6848665743
  S         7.5713591848       16.0609075617       38.5329034732
  S         0.7830028817       20.7488901846       38.3083520668
  S        12.0573127779        8.8843373632       34.1259331961
  S        17.0263637505        0.4558270844       33.9110419229
  S        19.5758782070        5.8065510702       27.3313511189
  S        14.7766050428       10.2273295876       27.3468007714
  S        19.5459943650       10.1847775445       36.0660048018
  S        14.5805311885        5.5610762709       36.2613933249
  S        14.3685407623       12.2484004820       27.3840083688
  S        19.9760844588        3.7844448486       27.3081732718
  S        14.3083826800        3.5168802873       36.1003085792
  S        19.9246798595       12.2147458568       36.0727295850
  S        17.3859538678        2.4839628930       33.7447291057
  S        11.7828001136        6.9031586689       33.7358775965
  S        13.6500978732        9.0829546852       35.5260608544
  S        15.5480133675        0.1244674096       35.3227199332
  S        18.0214656357        6.1878021957       28.6453812437
  S        16.3218050971        9.8147501888       28.6647329227
  S        18.0033882231        9.7715590803       34.7465636276
  S        16.1658556735        6.1638088658       35.0540748059
  S        12.7702348824       12.6111332985       28.6501893507
  S        11.0958966549        3.3936187309       28.5863617024
  S        12.8703910275        3.1067010476       34.6724542838
  S        11.6958327347       12.4618466883       34.7822376611
  S        19.0424502835        2.9817083005       34.8839967285
  S        20.6502134861        6.6352000178       35.2528450460
  S        12.8207081588        9.8509691552       37.2451979911
  S        15.9092447440       12.2386554040       36.5728740145
  S        18.8108879610        6.7912090994       30.4589866858
  S        15.5251227715        9.1111415085       30.4389566187
  S        18.8009586263        9.1756796204       32.9336188167
  S        15.4675162849        6.8577339941       33.2432787431
  S        13.5192565056        0.4114367162       30.3705606428
  S        20.7978100789        2.7426572531       30.4052336737
  S        13.8042504585        2.6774942696       32.8816099756
  S        20.8067375545        0.3529632689       32.9882314086
  S        18.4208272082        3.7093482388       36.7192642007
  S         9.4745940920        6.5169820144       38.4370479164
  S        12.2478695123        8.4212362937       38.7912276789
  S        16.5631650765        1.3746499033       38.3134337787
  S        18.8887951662        5.1841735474       31.7600352715
  S        15.3802450606       10.6498777277       31.8160035088
  S        18.8238904142       10.7798200621       31.6266565720
  S        15.5598632074        5.3518803502       31.8207139197
  S        13.4830310749       11.4607791650       31.7403378989
  S        20.7703664886        4.3365488716       31.7234453140
  S        13.7561511022        4.3618960707       31.6800927818
  S        20.6885971185       11.6680508621       31.6338990081
  S        18.4589224350        2.1936773306       38.1258898170
  S        10.1997408786        8.3550299006       39.0303470394
  S        12.1037958875       21.8337925449       33.6717172312
  S        17.0219108697       13.5207490389       33.6395087353
  S        19.5930745736       18.6752769806       27.3196592089
  S        14.7586750210       23.0549181899       27.3129022405
  S        19.6605591434       23.0562264946       36.1341970809
  S        14.7838655497       18.6982534484       36.1314433354
  S        14.3463271531       25.0741361085       27.2873983040
  S        19.9891927020       16.6523283317       27.3165359117
  S        14.3290767611       16.6806355411       36.1474061732
  S        20.0910110928       25.0790967593       36.1268071551
  S        17.4180512529       15.5341845113       33.8736376138
  S        11.7056498776       19.8214566690       33.9145029178
  S        13.7825735919       22.3437976864       34.7742499482
  S        15.3404501288       13.0313123072       34.7474366498
  S        18.0290937013       19.0750613731       28.6163836210
  S        16.3210789297       22.6810540071       28.6188409218
  S        18.0770137212       22.6696507621       34.8596442330
  S        16.3340824123       19.0569107620       34.8090811651
  S        12.7675790159       25.4663206007       28.5700121806
  S        11.0665660856       16.2308617442       28.6807705020
  S        12.7512069718       16.3143127824       34.8599926016
  S        11.0383761207       25.5125739391       34.8017260592
  S        18.8891730316       15.7890181070       35.3107048094
  S        20.6110094580       19.4341904000       34.8358529323
  S        13.2049289110       23.1397621391       36.5949145240
  S        16.4119774714       25.4020356053       37.1518603172
  S        18.8034307488       19.6708797826       30.4388366107
  S        15.5492131634       22.1126299886       30.4513925733
  S        18.8155797703       22.0442377877       33.0288159867
  S        15.5506958344       19.6658647260       32.9910993982
  S        13.4817211163       13.1336669026       30.5206634499
  S        20.7660069514       15.6120608959       30.4225071434
  S        13.5012685516       15.6540112203       33.0441301913
  S        20.7175938698       13.2562015423       32.9611989168
  S        18.0086131908       16.2218676261       37.1365006679
  S        11.1366214037       19.1609779367       37.1909936210
  S        13.2560507884       21.6710030907       38.0490063660
  S        15.8783877639       13.7246462170       38.0119894585
  S        18.8225735475       18.0560853346       31.7318918286
  S        15.5096900434       23.7531164129       31.7110713984
  S        18.8464870416       23.6349592402       31.7073994246
  S        15.4690142812       18.0570303460       31.6932923956
  S        13.6199466246       24.5854970977       31.7290068784
  S        20.6969674407       17.1901852883       31.7578355014
  S        13.5741405067       17.2341819408       31.7115912853
  S        20.7264563726       24.4897888818       31.6740212686
  S        17.7883002472       14.4939924670       38.2556494258
  S        11.3507133298       20.8907587090       38.2991911319
  S        22.5419243676        8.9400216037       33.6683678522
  S        27.4793846564        0.6256888771       33.6885588653
  S        30.0636685215        5.8076570199       27.3203961346
  S        25.2107140644       10.2042816427       27.3160653546
  S        30.0250600301       10.2205577377       36.0962808982
  S        25.2245799302        5.8014024570       36.1438109407
  S        24.8133503340       12.2269719717       27.3143321585
  S        30.4603309128        3.7849593107       27.3070769719
  S        24.8013116744        3.7772112301       36.1338060681
  S        30.4509739634       12.2436459125       36.0884244549
  S        27.8779175304        2.6437899157       33.8734735300
  S        22.1533434934        6.9205816435       33.8560458657
  S        24.1895557435        9.4299996825       34.8255315887
  S        25.8232008530        0.1461612738       34.8373662343
  S        28.5037631604        6.1991418045       28.6239229209
  S        26.7711504745        9.8043780652       28.6170037529
  S        28.4711740681        9.8308639825       34.7870498091
  S        26.7907878221        6.1938933050       34.8502819178
  S        23.2466426936       12.6239309524       28.6097452556
  S        21.5525056855        3.3741658938       28.5872000341
  S        23.2526551838        3.3940834982       34.8171539916
  S        21.4859047950       12.6313973696       34.7772663253
  S        29.3753485544        2.9234541378       35.2766949335
  S        31.0253548504        6.5617915509       34.8033107026
  S        23.5606643659       10.1843664339       36.6468551456
  S        26.7333827811       12.5913878633       37.0416479328
  S        29.2843754628        6.7754155625       30.4503565493
  S        25.9922330985        9.2055188039       30.4368623089
  S        29.2549370582        9.1912054533       32.9801323060
  S        26.0267100792        6.8244308969       33.0317357021
  S        24.0473140782        0.3708384577       30.4403783924
  S        31.2550802172        2.7192927287       30.4002192526
  S        24.0402151389        2.7830509581       33.0015877134
  S        31.2214867294        0.3884197894       32.9892491054
  S        28.5298940040        3.3919048918       37.1104003550
  S        21.4885343036        6.1792875293       37.0929555680
  S        23.5660419008        8.6798543038       38.0670171691
  S        26.4345678772        0.9039323830       38.0801515526
  S        29.3102784438        5.1473626242       31.7264040366
  S        25.9622282832       10.8197108864       31.7303079378
  S        29.3152415125       10.7701065103       31.6468891752
  S        25.9803968240        5.2377726857       31.7057498931
  S        24.0852191775       11.6799111654       31.7504591001
  S        31.1868174702        4.2860271071       31.7485265451
  S        24.1003152481        4.3840249157       31.6927440534
  S        31.1950679669       11.6273524097       31.6528572522
  S        28.3450414049        1.6866891867       38.2670174271
  S        21.6583657488        7.8889749852       38.2460445761
  S        22.6667202803       21.9263871923       33.8557422951
  S        27.4068100875       13.3649006882       33.8147024839
  S        30.0386834184       18.6549840576       27.3118213756
  S        25.2231011542       23.0827284147       27.3175893867
  S        30.0844417619       23.0566735188       36.1079533742
  S        25.2250954880       18.6469760165       36.0662040721
  S        24.8262883677       25.1054257402       27.3190678803
  S        30.4408087783       16.6332156109       27.3312919814
  S        24.8377565486       16.6184985139       36.0593117313
  S        30.4629103094       25.0874491066       36.1092148328
  S        27.8030684436       15.3844413453       33.6472399553
  S        22.2608355018       19.9095870359       33.6752775388
  S        24.1774626537       22.2042438114       35.2463151287
  S        25.8995839235       13.0704078186       35.2057765428
  S        28.4762814632       19.0571642652       28.6114231829
  S        26.7874924897       22.6844112408       28.6155771769
  S        28.5338978088       22.6382532397       34.8017268192
  S        26.7735172347       19.0620289984       34.7559776877
  S        23.2667080647       25.5050535939       28.6211151019
  S        21.5490591139       16.2519348889       28.6191944272
  S        23.2838879081       16.2129760907       34.7525064761
  S        21.6208140707       25.4644066217       34.7889428555
  S        29.4519897347       15.8583919637       34.8091379029
  S        31.1655645730       19.4726571655       35.3267286293
  S        23.3513071174       22.6684502209       37.0899567731
  S        26.4393384504       25.1271323143       36.6644169432
  S        29.2523675635       19.7271180933       30.4058564832
  S        26.0111517618       22.0460690008       30.4222527514
  S        29.3195621074       22.0345378259       32.9859017813
  S        25.9860364512       19.6836208429       32.9468851328
  S        24.0198401829       13.2607229913       30.4177842154
  S        31.2645172043       15.6885774444       30.4617118956
  S        24.0658790594       15.6076483507       32.9359009974
  S        31.2301955618       13.2305658902       32.9564150631
  S        28.8262769487       16.5939872912       36.6404736231
  S        21.2368128535       18.6775650078       36.6575973231
  S        23.1689926091       20.9601251207       38.2439179867
  S        26.9090201598       14.2888650339       38.2119955638
  S        29.3539939731       18.1657604364       31.7591140688
  S        25.9481881892       23.6255715916       31.7557650178
  S        29.3330357300       23.6328902877       31.6702785836
  S        25.9546553719       18.0946842005       31.6210791700
  S        24.0733264779       24.4903434468       31.7352879932
  S        31.2440284483       17.3335312343       31.7187782039
  S        24.0904626785       17.2068400925       31.6221620131
  S        31.1930588826       24.5275155624       31.6670958756
  S        28.8204047541       15.0736715344       38.0440331108
  S        21.2533298248       20.1861684431       38.0737743159
 Li        10.4676556348       10.0166342414       36.1900612046
 Li         7.9187407223       11.6367886974       35.6982888196
 Li         8.1125678991       13.7301390199       38.2222386126
 Li         5.5732992400       15.1452926446       37.7121304350
 Li         8.7963652063        7.0634548254       36.1882409317
 Li        11.6113267107        6.2852770028       37.3270402049
